* 
* No part of this file can be released without the consent of SMIC.
*
******************************************************************************************
*  SMIC 0.18um Logic Low Leakage 1P6M(1P5M, 1P4M) 1.8V/5V SPICE model (for HSPICE only)  *
******************************************************************************************
*
* Release version    : 1.3
*
* Release date       : 06/21/2007
*
* Simulation tool    : Synopsys Star-HSPICE version 2005.9
*
* Model type         :
* PNP BJT            : HSPICE Level 1
* 
* Model name         :
* PNP BJT            :
*        *-----------------------------------------* 
*        |  P+/NWELL/PSUB BJT type   |    1.8V     |
*        |=========================================|
*        | Emitter Area: 10*10 um^2  | pnp18a100ll |
*        |-----------------------------------------|  
*        | Emitter Area: 5*5 um^2    |  pnp18a25ll |
*        |-----------------------------------------| 
*        | Emitter Area: 2*2 um^2    |  pnp18a4ll  |
*        *-----------------------------------------* 
*
*   The valid temperature range is from -40C to 125C
* 
***********************************************************************************
*          1.8V  P+/NWELL/PSUB BIPOLAR MODEL (Emitter Area=10x10um^2)             *
***********************************************************************************
*                  
.model pnp18a100ll pnp           

+LEVEL    = 1
+VAF      = 553.93              IKF      = 1.90E-03            
+ISE      = 7.60E-17            NE       = 1.5                 BR       = 7.44E-03            
+NR       = 1.0                 VAR      = 23.0                IKR      = 2.09E-03            
+ISC      = 5.00E-17            NC       = 1.5                 RB       = 30.0                
+IRB      = 2.50E-03            RBM      = 2.0                 RE       = 2.0                 
+RC       = 11.11               XTI      = 3.0                 EG       = 1.16                
+TREF     = 25.0                NKF      = 0.5                 TLEV     = 0
+TLEVC    = 1                   XTB      = 0.00                TRB1     = 0.0025
+TBF1     = 0.0051              TBF2     = 0.000003            TBR1     = -0.00075838         
+TBR2     = 0.000010152         TIKF1    = -0.0045             TIKR1    = 0                   
+TNF1     = -0.0001             TNF2     = -0.000001           TNR1     = 0
+VJE      = 0.805               MJE      = 0.401
+VJC      = 0.571               MJC      = 0.402
+CTC      = 2.51E-3             CTE      = 8.76E-4
+TVJC     = 2.68E-3             TVJE     = 1.53E-3
+SUBS     = 1
+IS       = '7.68E-18+DIS_PNP18A100ll'
+BF       = '2.7934+DBF_PNP18A100ll'
+NF       = '1.0+DNF_PNP18A100ll'
+CJC      = '6.496E-14+DCJC_PNP18A100ll'
+CJE      = '1.054E-13+DCJE_PNP18A100ll'                         
*
***********************************************************************************
*           1.8V  P+/NWELL/PSUB BIPOLAR MODEL (Emitter Area=5x5um^2)              *
***********************************************************************************
*                  
.model pnp18a25ll pnp

+LEVEL    = 1
+VAF      = 553.93              IKF      = 1.10E-03            
+ISE      = 2.03E-17            NE       = 1.5                 BR       = 3.05E-03            
+NR       = 0.9995              VAR      = 25.0                IKR      = 2.09E-03            
+ISC      = 2.00E-17            NC       = 1.5                 RB       = 42.0                
+IRB      = 2.50E-03            RBM      = 2.0                 RE       = 3.0                 
+RC       = 11.11               XTI      = 3.0                 EG       = 1.16                
+TREF     = 25.0                NKF      = 0.5                 TLEV     = 0
+TLEVC    = 1                   XTB      = 0.00                TIKF1    = -0.004
+TBF1     = 0.00522             TBF2     = 0.0000047278        TNF1     = -0.0001 
+TBR1     = -0.000837           TBR2     = 0.000010977         TNF2     = -0.000001    
+VJE      = 0.805               MJE      = 0.401
+VJC      = 0.571               MJC      = 0.402
+CTC      = 2.51E-3             CTE      = 8.76E-4
+TVJC     = 2.68E-3             TVJE     = 1.53E-3
+SUBS     = 1
+IS       = '2.17E-18+DIS_PNP18A25ll'  
+BF       = '2.8218+DBF_PNP18A25ll'                
+NF       = '1.0+DNF_PNP18A25ll'
+CJC      = '3.834E-14+DCJC_PNP18A25ll' 
+CJE      = '2.720E-14+DCJE_PNP18A25ll'
*
***********************************************************************************
*           1.8V  P+/NWELL/PSUB BIPOLAR MODEL (Emitter Area=2x2um^2)              *
***********************************************************************************
*                  
.model pnp18a4ll pnp

+LEVEL    = 1
+VAF      = 553.93              IKF      = 4.00E-04            
+ISE      = 4.74E-18            NE       = 1.5                 BR       = 8.85E-04            
+NR       = 1.0                 VAR      = 20.0                IKR      = 2.09E-03            
+ISC      = 8.00E-18            NC       = 1.5                 RB       = 76.7153             
+IRB      = 2.50E-03            RBM      = 2.0                 RE       = 4.5903              
+RC       = 11.11               XTI      = 3.0                 EG       = 1.16                
+TREF     = 25.0                NKF      = 0.5                 TLEV     = 0
+TLEVC    = 1                   XTB      = 0.00                TBF1     = 0.0059054           
+TBF2     = 0.0000060835        TBR1     = -0.00086755         TBR2     = 9.53e-6
+TIKF1    = -0.004              TNF1     = -0.000030626        TNF2     = -0.000001
+VJE      = 0.805               MJE      = 0.401
+VJC      = 0.571               MJC      = 0.402
+CTC      = 2.51E-3             CTE      = 8.76E-4
+TVJC     = 2.68E-3             TVJE     = 1.53E-3
+SUBS     = 1
+IS       = '4.63E-19+DIS_PNP18A4ll'  
+BF       = '2.9246+DBF_PNP18A4ll'                
+NF       = '1.0+DNF_PNP18A4ll'
+CJC      = '2.512E-14+DCJC_PNP18A4ll' 
+CJE      = '4.758E-15+DCJE_PNP18A4ll'
