* 
* No part of this file can be released without the consent of SMIC.
*
****************************************************************************************
* SMIC 0.18um Logic Low Leakage 1P6M(1P5M, 1P4M) 1.8V/5V SPICE model (for ELDO only) *
****************************************************************************************
*
* Release version    : 1.3
*
* Release date       : 06/21/2007
*
* Simulation tool    : Mentor Graphics's Eldo v6.6_1.1
*
* MIM capacitor      : mim 
*   
* Valid temperature range is from -55C to 125C
*
*
******************************************************************
*                      MIM Capacitor                             * 
******************************************************************
.model mim c
+COX = '9.71E-04+DMIM'         TC1 = -3.48E-05          TREF  = 25
*


